Circuit: * D:\Dropbox\USM\3.2 PROYECTO Y TITULACION\Proyecto\2. Hardware\Simulaciones\DOUTs\DOUT.asc

Instance "m:m1:2": Length shorter than recommended for a level 3 MOSFET.
Direct Newton iteration for .op point succeeded.

Date: Sun Oct 31 17:31:11 2021
Total elapsed time: 0.146 seconds.

tnom = 27
temp = 27
method = modified trap
totiter = 5155
traniter = 5145
tranpoints = 2202
accept = 1836
rejected = 366
matrix size = 10
fillins = 0
solver = Normal
Matrix Compiler1: 418 bytes object code size  0.1/0.1/[0.0]
Matrix Compiler2: 768 bytes object code size  0.1/0.1/[0.1]

