Circuit: * D:\Dropbox\USM\3.2 PROYECTO Y TITULACION\Proyecto\2. Hardware\Simulaciones\DOUTs\Draft1.asc

Direct Newton iteration for .op point succeeded.

Date: Fri Nov 19 20:15:45 2021
Total elapsed time: 0.061 seconds.

tnom = 27
temp = 27
method = modified trap
totiter = 2091
traniter = 2088
tranpoints = 1045
accept = 1045
rejected = 0
matrix size = 4
fillins = 0
solver = Normal
Matrix Compiler1: 118 bytes object code size  0.0/0.0/[0.0]
Matrix Compiler2: off  [0.0]/0.1/0.0

