Circuit: * D:\Dropbox\USM\3.2 PROYECTO Y TITULACION\Proyecto\Hardware\SmartyBoy\Simulations\DAC\dac.asc

Limiting rise time of source v1 to 0.1
Limiting fall time of source v1 to 0.1
Instance "m:m2:2": Length shorter than recommended for a level 3 MOSFET.
Instance "m:m1:2": Length shorter than recommended for a level 3 MOSFET.
Direct Newton iteration failed to find .op point.  (Use ".option noopiter" to skip.)
Starting Gmin stepping
Gmin = 10
Gmin = 1.07374
Gmin = 0.115292
Gmin = 0.0123794
Gmin = 0.00132923
Gmin = 0.000142725
Gmin = 1.5325e-005
Gmin = 1.6455e-006
Gmin = 1.76685e-007
Gmin = 1.89714e-008
Gmin = 2.03704e-009
Gmin = 2.18725e-010
Gmin = 2.34854e-011
Gmin = 2.52173e-012
Gmin = 2.70769e-013
Gmin = 0
Gmin stepping succeeded in finding the operating point.


Date: Sun Dec 19 16:48:53 2021
Total elapsed time: 0.352 seconds.

tnom = 27
temp = 27
method = modified trap
totiter = 3356
traniter = 2624
tranpoints = 1159
accept = 1123
rejected = 36
matrix size = 76
fillins = 92
solver = Normal
Matrix Compiler1: 9.05 KB object code size  1.9/1.0/[0.5]
Matrix Compiler2: 8.01 KB object code size  1.0/1.8/[0.6]

