Circuit: * D:\Dropbox\USM\3.2 PROYECTO Y TITULACION\Proyecto\2. Hardware\Simulaciones\DAC\Draft1.asc

Fatal Error: Unknown subcircuit called in:
   xm1 out n002 0 ao3400a
